Version 4
SHEET 1 1028 680
WIRE -112 -496 -240 -496
WIRE 272 -496 -112 -496
WIRE -240 -464 -240 -496
WIRE -112 -464 -112 -496
WIRE -240 -352 -240 -384
WIRE -112 -352 -112 -384
WIRE 32 -352 -112 -352
WIRE 192 -352 32 -352
WIRE -112 -336 -112 -352
WIRE 32 -336 32 -352
WIRE -112 -240 -112 -272
WIRE 32 -240 32 -256
WIRE 32 -240 -112 -240
WIRE -112 -208 -112 -240
WIRE 272 -192 272 -496
WIRE 128 -176 -16 -176
WIRE 240 -176 128 -176
WIRE 304 -160 288 -160
WIRE 464 -160 304 -160
WIRE 560 -160 464 -160
WIRE 192 -144 192 -352
WIRE 240 -144 192 -144
WIRE 272 -80 272 -128
WIRE -16 -64 -16 -176
WIRE -16 -64 -80 -64
WIRE -80 -32 -80 -64
WIRE 128 16 128 -176
WIRE 240 16 128 16
WIRE 464 16 464 -160
WIRE 464 16 320 16
WIRE -80 80 -80 48
WIRE 128 112 128 16
WIRE 240 112 128 112
WIRE 464 112 464 16
WIRE 464 112 304 112
FLAG -80 80 0
FLAG -240 -352 0
FLAG -112 -208 0
FLAG 272 -80 0
SYMBOL voltage -240 -480 R0
WINDOW 123 0 0 Left 2
WINDOW 39 0 0 Left 2
SYMATTR InstName V1
SYMATTR Value 3
SYMBOL current -80 -32 R0
WINDOW 0 24 80 Left 2
WINDOW 3 24 0 Left 2
WINDOW 123 0 0 Left 2
WINDOW 39 0 0 Left 2
SYMATTR InstName I1
SYMATTR Value 0
SYMBOL res -128 -480 R0
SYMATTR InstName R2
SYMATTR Value 10000
SYMBOL res 16 -352 R0
SYMATTR InstName R3
SYMATTR Value 2000
SYMBOL cap -128 -336 R0
SYMATTR InstName C2
SYMATTR Value 0.0000001
SYMBOL res 336 0 R90
WINDOW 0 0 56 VBottom 2
WINDOW 3 32 56 VTop 2
SYMATTR InstName R1
SYMATTR Value 137000
SYMBOL cap 304 96 R90
WINDOW 0 0 32 VBottom 2
WINDOW 3 32 32 VTop 2
SYMATTR InstName C1
SYMATTR Value .000000000011
SYMBOL Opamps\\LTC6240 272 -160 R0
SYMATTR InstName U1
TEXT -216 256 Left 2 !.dc I1 0 0.000014 0.00000014
