Version 4
SHEET 1 880 680
WIRE 160 -48 -64 -48
WIRE 256 -48 160 -48
WIRE 304 -48 256 -48
WIRE 352 -48 304 -48
WIRE 160 -16 160 -48
WIRE 352 32 352 -48
WIRE -64 64 -64 32
WIRE 160 96 160 64
WIRE 160 96 32 96
WIRE 352 128 352 96
WIRE 160 144 160 96
WIRE 32 160 32 96
WIRE 304 160 304 -48
WIRE 368 160 304 160
WIRE 160 240 160 208
WIRE 336 240 160 240
WIRE 256 272 256 -48
WIRE 160 288 160 240
WIRE 224 288 160 288
WIRE 336 304 336 240
WIRE 336 304 288 304
WIRE 32 320 32 240
WIRE 32 320 -64 320
WIRE 224 320 32 320
WIRE 256 352 256 336
WIRE 272 384 128 384
WIRE 368 416 368 160
WIRE 368 416 192 416
WIRE -64 432 -64 320
WIRE 64 432 -64 432
WIRE 128 432 128 384
WIRE 160 432 128 432
WIRE 272 448 272 384
WIRE 272 448 224 448
WIRE 384 448 272 448
WIRE 560 448 464 448
WIRE 656 448 560 448
WIRE -64 464 -64 432
WIRE 64 464 64 432
WIRE 160 464 64 464
WIRE 560 464 560 448
WIRE 64 480 64 464
WIRE 192 496 192 480
WIRE 560 560 560 528
WIRE -64 576 -64 544
WIRE 64 576 64 544
FLAG 352 128 0
FLAG -64 64 0
FLAG 64 576 0
FLAG -64 576 0
FLAG 560 560 0
FLAG 256 352 0
FLAG 192 496 0
SYMBOL References\\LT1634-1.25 160 176 R0
SYMATTR InstName U1
SYMBOL Opamps\\LT1013 256 240 R0
SYMATTR InstName U2
SYMBOL Opamps\\LT1013 192 384 R0
SYMATTR InstName U3
SYMBOL res -80 448 R0
SYMATTR InstName R1
SYMATTR Value {R}
SYMBOL res 16 144 R0
SYMATTR InstName R2
SYMATTR Value 49900
SYMBOL res 144 -32 R0
SYMATTR InstName R3
SYMATTR Value 33000
SYMBOL res 480 432 R90
WINDOW 0 0 56 VBottom 2
WINDOW 3 32 56 VTop 2
SYMATTR InstName R4
SYMATTR Value 10000
SYMBOL voltage -64 -64 R0
WINDOW 123 0 0 Left 2
WINDOW 39 0 0 Left 2
SYMATTR InstName V1
SYMATTR Value 5
SYMBOL cap 336 32 R0
SYMATTR InstName C1
SYMATTR Value .00001
SYMBOL cap 48 480 R0
SYMATTR InstName C2
SYMATTR Value .0000001
SYMBOL cap 544 464 R0
SYMATTR InstName C3
SYMATTR Value .0000001
TEXT -96 632 Left 2 !.step param R 2k 38k 1k
TEXT -96 656 Left 2 !.op
